@<TRIPOS>MOLECULE
SAM
   50    52     1     0     0
SMALL
bcc


@<TRIPOS>ATOM
      1 N            4.6080     4.5930    -7.3180 n4         1 SAM      -0.821600
      2 HN1          5.4260     4.5980    -8.0900 hn         1 SAM       0.466467
      3 HN2          5.0680     4.7490    -6.3060 hn         1 SAM       0.466467
      4 HN3          4.1870     5.6350    -7.4390 hn         1 SAM       0.466467
      5 CA           3.6080     3.5690    -7.5910 c3         1 SAM      -0.049500
      6 HA           4.0040     2.5750    -7.8840 hx         1 SAM       0.157700
      7 C            3.0180     3.7810    -8.9580 c          1 SAM       0.929600
      8 O            3.2710     4.8390    -9.6210 o          1 SAM      -0.710800
      9 OXT          2.3150     2.8740    -9.4220 o          1 SAM      -0.710800
     10 CB           2.5170     3.5600    -6.5160 c3         1 SAM      -0.059400
     11 HB1          2.2530     4.5760    -6.1280 hc         1 SAM       0.075200
     12 HB2          1.5560     3.1920    -6.9590 hc         1 SAM       0.075200
     13 CG           2.8670     2.6260    -5.3230 c3         1 SAM      -0.062100
     14 HG1          3.5930     2.9740    -4.5550 h1         1 SAM       0.116200
     15 HG2          1.9130     2.6750    -4.7410 h1         1 SAM       0.116200
     16 SD           3.1250     0.9990    -5.7660 s4         1 SAM       0.262100
     17 CE           2.1680     0.0730    -4.7250 c3         1 SAM      -0.158800
     18 HE1          2.6110    -0.5100    -3.8770 h1         1 SAM       0.111033
     19 HE2          1.2600     0.5200    -4.2450 h1         1 SAM       0.111033
     20 HE3          1.7570    -0.6330    -5.4910 h1         1 SAM       0.111033
     21 C5'          4.7290     0.3770    -5.5880 c3         1 SAM      -0.145100
     22 H5'1         4.9090     0.3030    -4.4910 h1         1 SAM       0.106200
     23 H5'2         4.5260    -0.6410    -6.0020 h1         1 SAM       0.106200
     24 C4'          5.8620     0.9680    -6.4430 c3         1 SAM       0.131100
     25 H4'          5.6320     0.7530    -7.5110 h1         1 SAM       0.098700
     26 O4'          6.0930     2.3530    -6.0750 os         1 SAM      -0.461600
     27 C3'          7.2280     0.3400    -6.2020 c3         1 SAM       0.095100
     28 H3'          7.3790     0.0380    -5.1390 h1         1 SAM       0.103700
     29 O3'          7.4800    -0.9480    -6.8010 oh         1 SAM      -0.569800
     30 HO3'         8.4170    -1.3850    -6.4190 ho         1 SAM       0.425000
     31 C2'          8.1840     1.4450    -6.6220 c3         1 SAM       0.084100
     32 H2'          9.1960     1.2530    -6.1960 h1         1 SAM       0.077700
     33 O2'          8.3600     1.5910    -8.0560 oh         1 SAM      -0.585800
     34 HO2'         9.4250     1.5130    -8.3250 ho         1 SAM       0.438000
     35 C1'          7.4750     2.6680    -6.0960 c3         1 SAM       0.257800
     36 H1'          7.6980     3.5590    -6.7250 h2         1 SAM       0.135700
     37 N9           7.8620     3.0710    -4.7280 na         1 SAM      -0.299000
     38 C8           7.0940     2.9340    -3.6240 cc         1 SAM       0.404700
     39 H8           6.1890     2.5140    -3.1490 h5         1 SAM       0.081800
     40 N7           7.7020     3.4440    -2.5460 nd         1 SAM      -0.514100
     41 C5           8.8920     3.9230    -2.9840 ca         1 SAM      -0.236200
     42 C6          10.0080     4.5320    -2.3560 ca         1 SAM       0.778200
     43 N6          10.0170     4.7950    -1.0150 nh         1 SAM      -0.929500
     44 HN61        10.9280     4.5710    -0.4230 hn         1 SAM       0.462800
     45 HN62         9.2010     5.3100    -0.4680 hn         1 SAM       0.462800
     46 N1          11.0550     4.8850    -3.1320 nb         1 SAM      -0.778000
     47 C2          11.0950     4.6480    -4.4430 ca         1 SAM       0.678900
     48 H2          11.9760     5.0110    -5.0020 h5         1 SAM       0.038100
     49 N3          10.0880     4.0360    -5.0850 nb         1 SAM      -0.811000
     50 C4           8.9740     3.6800    -4.3990 ca         1 SAM       0.469800
@<TRIPOS>BOND
     1     1     2 1   
     2     1     3 1   
     3     1     4 1   
     4     1     5 1   
     5     5     6 1   
     6     5     7 1   
     7     5    10 1   
     8     7     8 1   
     9     7     9 1   
    10    10    11 1   
    11    10    12 1   
    12    10    13 1   
    13    13    14 1   
    14    13    15 1   
    15    13    16 1   
    16    16    17 1   
    17    16    21 1   
    18    17    18 1   
    19    17    19 1   
    20    17    20 1   
    21    21    22 1   
    22    21    23 1   
    23    21    24 1   
    24    24    25 1   
    25    24    26 1   
    26    24    27 1   
    27    26    35 1   
    28    27    28 1   
    29    27    29 1   
    30    27    31 1   
    31    29    30 1   
    32    31    32 1   
    33    31    33 1   
    34    31    35 1   
    35    33    34 1   
    36    35    36 1   
    37    35    37 1   
    38    37    38 1   
    39    37    50 1   
    40    38    39 1   
    41    38    40 2   
    42    40    41 1   
    43    41    42 ar  
    44    41    50 ar  
    45    42    43 1   
    46    42    46 ar  
    47    43    44 1   
    48    43    45 1   
    49    46    47 ar  
    50    47    48 1   
    51    47    49 ar  
    52    49    50 ar  
@<TRIPOS>SUBSTRUCTURE
     1 SAM         1 TEMP              0 ****  ****    0 ROOT
