@<TRIPOS>MOLECULE
SAH
   46    48     1     0     0
SMALL
bcc


@<TRIPOS>ATOM
      1 N            4.6080     4.5930    -7.3180 n4         1 SAH      -0.827600
      2 HN1          5.4580     4.6250    -8.0540 hn         1 SAH       0.445133
      3 HN2          4.1430     5.6180    -7.4760 hn         1 SAH       0.445133
      4 HN3          4.9660     4.7660    -6.2640 hn         1 SAH       0.445133
      5 CA           3.6080     3.5690    -7.5910 c3         1 SAH      -0.073500
      6 HA           3.9800     2.5590    -7.8560 hx         1 SAH       0.102700
      7 C            3.0180     3.7810    -8.9580 c          1 SAH       0.935600
      8 O            3.2710     4.8390    -9.6210 o          1 SAH      -0.760300
      9 OXT          2.3150     2.8740    -9.4220 o          1 SAH      -0.760300
     10 CB           2.5170     3.5600    -6.5160 c3         1 SAH      -0.080400
     11 HB1          1.5500     4.0960    -6.5150 hc         1 SAH       0.094700
     12 HB2          1.5500     4.0970    -6.5180 hc         1 SAH       0.094700
     13 CG           2.8670     2.6260    -5.3230 c3         1 SAH      -0.036300
     14 HG1          1.9470     2.2910    -4.7820 h1         1 SAH       0.063700
     15 HG2          3.4680     3.1210    -4.5260 h1         1 SAH       0.063700
     16 SD           3.1250     0.9990    -5.7660 ss         1 SAH      -0.266200
     17 C5'          4.7290     0.3770    -5.5880 c3         1 SAH      -0.045300
     18 H5'1         4.3950    -0.6150    -5.9800 h1         1 SAH       0.093700
     19 H5'2         4.7580     0.2620    -4.4800 h1         1 SAH       0.093700
     20 C4'          5.8620     0.9680    -6.4430 c3         1 SAH       0.099100
     21 H4'          5.6290     0.7740    -7.5140 h1         1 SAH       0.085700
     22 O4'          6.0930     2.3530    -6.0750 os         1 SAH      -0.465600
     23 C3'          7.2280     0.3400    -6.2020 c3         1 SAH       0.128100
     24 H3'          7.3490     0.0280    -5.1370 h1         1 SAH       0.100700
     25 O3'          7.4800    -0.9480    -6.8010 oh         1 SAH      -0.567800
     26 HO3'         8.4100    -1.3900    -6.4090 ho         1 SAH       0.428000
     27 C2'          8.1840     1.4450    -6.6220 c3         1 SAH       0.080100
     28 H2'          9.1920     1.2390    -6.1940 h1         1 SAH       0.095700
     29 O2'          8.3600     1.5910    -8.0560 oh         1 SAH      -0.597800
     30 HO2'         9.4310     1.6710    -8.3110 ho         1 SAH       0.437000
     31 C1'          7.4750     2.6680    -6.0960 c3         1 SAH       0.239800
     32 H1'          7.6730     3.5700    -6.7180 h2         1 SAH       0.101700
     33 N9           7.8620     3.0710    -4.7280 na         1 SAH      -0.302000
     34 C8           7.0940     2.9340    -3.6240 cc         1 SAH       0.408700
     35 H8           6.1550     2.5580    -3.1750 h5         1 SAH       0.074800
     36 N7           7.7020     3.4440    -2.5460 nd         1 SAH      -0.530100
     37 C5           8.8920     3.9230    -2.9840 ca         1 SAH      -0.233200
     38 C6          10.0080     4.5320    -2.3560 ca         1 SAH       0.772200
     39 N6          10.0170     4.7950    -1.0150 nh         1 SAH      -0.952500
     40 HN61        11.0250     4.7680    -0.5550 hn         1 SAH       0.454300
     41 HN62         9.2000     5.0930    -0.3260 hn         1 SAH       0.454300
     42 N1          11.0550     4.8850    -3.1320 nb         1 SAH      -0.790000
     43 C2          11.0950     4.6480    -4.4430 ca         1 SAH       0.698900
     44 H2          12.0000     4.9820    -4.9820 h5         1 SAH       0.056100
     45 N3          10.0880     4.0360    -5.0850 nb         1 SAH      -0.762000
     46 C4           8.9740     3.6800    -4.3990 ca         1 SAH       0.456800
@<TRIPOS>BOND
     1     1     2 1   
     2     1     3 1   
     3     1     4 1   
     4     1     5 1   
     5     5     6 1   
     6     5     7 1   
     7     5    10 1   
     8     7     8 1   
     9     7     9 1   
    10    10    11 1   
    11    10    12 1   
    12    10    13 1   
    13    13    14 1   
    14    13    15 1   
    15    13    16 1   
    16    16    17 1   
    17    17    18 1   
    18    17    19 1   
    19    17    20 1   
    20    20    21 1   
    21    20    22 1   
    22    20    23 1   
    23    22    31 1   
    24    23    24 1   
    25    23    25 1   
    26    23    27 1   
    27    25    26 1   
    28    27    28 1   
    29    27    29 1   
    30    27    31 1   
    31    29    30 1   
    32    31    32 1   
    33    31    33 1   
    34    33    34 1   
    35    33    46 1   
    36    34    35 1   
    37    34    36 2   
    38    36    37 1   
    39    37    38 ar  
    40    37    46 ar  
    41    38    39 1   
    42    38    42 ar  
    43    39    40 1   
    44    39    41 1   
    45    42    43 ar  
    46    43    44 1   
    47    43    45 ar  
    48    45    46 ar  
@<TRIPOS>SUBSTRUCTURE
     1 SAH         1 TEMP              0 ****  ****    0 ROOT
