@<TRIPOS>MOLECULE
SAM
   50    52     1     0     0
SMALL
bcc


@<TRIPOS>ATOM
      1 N            4.6080     4.5930    -7.3180 n4         1 SAM      -0.821600
      2 HN1          4.2080     5.6300    -7.5180 hn         1 SAM       0.466467
      3 HN2          5.4600     4.5500    -8.0520 hn         1 SAM       0.466467
      4 HN3          5.0000     4.7490    -6.2780 hn         1 SAM       0.466467
      5 CA           3.6080     3.5690    -7.5910 c3         1 SAM      -0.049500
      6 HA           3.9920     2.5700    -7.8790 hx         1 SAM       0.157700
      7 C            3.0180     3.7810    -8.9580 c          1 SAM       0.929600
      8 O            3.2710     4.8390    -9.6210 o          1 SAM      -0.710800
      9 OXT          2.3150     2.8740    -9.4220 o          1 SAM      -0.710800
     10 CB           2.5170     3.5600    -6.5160 c3         1 SAM      -0.059400
     11 HB1          2.2010     4.5820    -6.1870 hc         1 SAM       0.075200
     12 HB2          1.5530     3.1170    -6.8730 hc         1 SAM       0.075200
     13 CG           2.8670     2.6260    -5.3230 c3         1 SAM      -0.062100
     14 HG1          2.7710     2.9610    -4.2760 h1         1 SAM       0.116200
     15 HG2          2.7560     2.9620    -4.2790 h1         1 SAM       0.116200
     16 SD           3.1250     0.9990    -5.7660 s4         1 SAM       0.262100
     17 CE           2.1680     0.0730    -4.7250 c3         1 SAM      -0.158800
     18 HE1          1.1350     0.5100    -4.7320 h1         1 SAM       0.111033
     19 HE2          2.4620    -0.1020    -3.6600 h1         1 SAM       0.111033
     20 HE3          2.0500    -0.9110    -5.2510 h1         1 SAM       0.111033
     21 C5'          4.7290     0.3770    -5.5880 c3         1 SAM      -0.145100
     22 H5'1         4.9180     0.3060    -4.4930 h1         1 SAM       0.106200
     23 H5'2         4.5230    -0.6350    -6.0110 h1         1 SAM       0.106200
     24 C4'          5.8620     0.9680    -6.4430 c3         1 SAM       0.131100
     25 H4'          5.6380     0.7650    -7.5140 h1         1 SAM       0.098700
     26 O4'          6.0930     2.3530    -6.0750 os         1 SAM      -0.461600
     27 C3'          7.2280     0.3400    -6.2020 c3         1 SAM       0.095100
     28 H3'          7.3810     0.0310    -5.1410 h1         1 SAM       0.103700
     29 O3'          7.4800    -0.9480    -6.8010 oh         1 SAM      -0.569800
     30 HO3'         8.4340    -1.3680    -6.4450 ho         1 SAM       0.425000
     31 C2'          8.1840     1.4450    -6.6220 c3         1 SAM       0.084100
     32 H2'          9.1950     1.2480    -6.1980 h1         1 SAM       0.077700
     33 O2'          8.3600     1.5910    -8.0560 oh         1 SAM      -0.585800
     34 HO2'         9.4300     1.5940    -8.3200 ho         1 SAM       0.438000
     35 C1'          7.4750     2.6680    -6.0960 c3         1 SAM       0.257800
     36 H1'          7.6960     3.5660    -6.7160 h2         1 SAM       0.135700
     37 N9           7.8620     3.0710    -4.7280 na         1 SAM      -0.299000
     38 C8           7.0940     2.9340    -3.6240 cc         1 SAM       0.404700
     39 H8           6.1380     2.6030    -3.1790 h5         1 SAM       0.081800
     40 N7           7.7020     3.4440    -2.5460 nd         1 SAM      -0.514100
     41 C5           8.8920     3.9230    -2.9840 ca         1 SAM      -0.236200
     42 C6          10.0080     4.5320    -2.3560 ca         1 SAM       0.778200
     43 N6          10.0170     4.7950    -1.0150 nh         1 SAM      -0.929500
     44 HN61        10.1120     5.0400     0.0480 hn         1 SAM       0.462800
     45 HN62        10.1110     5.0410     0.0480 hn         1 SAM       0.462800
     46 N1          11.0550     4.8850    -3.1320 nb         1 SAM      -0.778000
     47 C2          11.0950     4.6480    -4.4430 ca         1 SAM       0.678900
     48 H2          11.9870     4.9870    -5.0000 h5         1 SAM       0.038100
     49 N3          10.0880     4.0360    -5.0850 nb         1 SAM      -0.811000
     50 C4           8.9740     3.6800    -4.3990 ca         1 SAM       0.469800
@<TRIPOS>BOND
     1     1     2 1   
     2     1     3 1   
     3     1     4 1   
     4     1     5 1   
     5     5     6 1   
     6     5     7 1   
     7     5    10 1   
     8     7     8 1   
     9     7     9 1   
    10    10    11 1   
    11    10    12 1   
    12    10    13 1   
    13    13    14 1   
    14    13    15 1   
    15    13    16 1   
    16    16    17 1   
    17    16    21 1   
    18    17    18 1   
    19    17    19 1   
    20    17    20 1   
    21    21    22 1   
    22    21    23 1   
    23    21    24 1   
    24    24    25 1   
    25    24    26 1   
    26    24    27 1   
    27    26    35 1   
    28    27    28 1   
    29    27    29 1   
    30    27    31 1   
    31    29    30 1   
    32    31    32 1   
    33    31    33 1   
    34    31    35 1   
    35    33    34 1   
    36    35    36 1   
    37    35    37 1   
    38    37    38 1   
    39    37    50 1   
    40    38    39 1   
    41    38    40 2   
    42    40    41 1   
    43    41    42 ar  
    44    41    50 ar  
    45    42    43 1   
    46    42    46 ar  
    47    43    44 1   
    48    43    45 1   
    49    46    47 ar  
    50    47    48 1   
    51    47    49 ar  
    52    49    50 ar  
@<TRIPOS>SUBSTRUCTURE
     1 SAM         1 TEMP              0 ****  ****    0 ROOT
